2018-10-19 16:00:32,018  INFO Gbl:62 JVM: 1.8.0_144; Oracle Corporation; mixed mode; 64-bit
2018-10-19 16:00:32,018  INFO Gbl:66 OS: Windows 10; 10.0; amd64
2018-10-19 16:00:32,018  INFO Gbl:69 CPU cores: 16
2018-10-19 16:00:32,018  INFO Gbl:70 max. Memory: 14512.0MB (15216934912B)
2018-10-19 16:00:32,018  INFO Gbl:108 MATSim-Build: r${buildNumber} (${timestamp})
2018-10-19 16:00:32,020  INFO ControlerListenerManagerImpl:107 calling notifyStartup on org.matsim.counts.CountsControlerListener
2018-10-19 16:00:32,020  INFO ControlerListenerManagerImpl:107 calling notifyStartup on org.matsim.analysis.ModeStatsControlerListener
2018-10-19 16:00:32,024 DEBUG NetworkRoutingProvider:75 requesting network routing module with routingMode=car;	mode=car
2018-10-19 16:00:32,027  INFO NetworkImpl:167  node # 1
2018-10-19 16:00:32,028  INFO NetworkImpl:167  node # 4
2018-10-19 16:00:32,028  INFO NetworkImpl:167  node # 16
2018-10-19 16:00:32,028  INFO NetworkImpl:167  node # 64
2018-10-19 16:00:32,028  INFO NetworkImpl:167  node # 256
2018-10-19 16:00:32,029  INFO NetworkImpl:167  node # 1024
2018-10-19 16:00:32,031  INFO NetworkImpl:167  node # 4096
2018-10-19 16:00:32,037  INFO NetworkImpl:167  node # 16384
2018-10-19 16:00:32,045  INFO NetworkImpl:163  link # 1
2018-10-19 16:00:32,045  INFO NetworkImpl:163  link # 4
2018-10-19 16:00:32,046  INFO NetworkImpl:163  link # 16
2018-10-19 16:00:32,046  INFO NetworkImpl:163  link # 64
2018-10-19 16:00:32,048  INFO NetworkImpl:163  link # 256
2018-10-19 16:00:32,053  INFO NetworkImpl:163  link # 1024
2018-10-19 16:00:32,065  INFO NetworkImpl:163  link # 4096
2018-10-19 16:00:32,107  INFO NetworkImpl:163  link # 16384
2018-10-19 16:00:32,224  INFO ControlerListenerManagerImpl:107 calling notifyStartup on org.matsim.analysis.ScoreStatsControlerListener
2018-10-19 16:00:32,225  INFO ControlerListenerManagerImpl:110 all ControlerStartupListeners called.
2018-10-19 16:00:32,226  INFO ControlerUtils:58 config dump before iterations start
2018-10-19 16:00:32,252  INFO ControlerUtils:62 

<?xml version="1.0" encoding="UTF-8"?>
<!DOCTYPE config SYSTEM "http://www.matsim.org/files/dtd/config_v2.dtd">
<config>
	<module name="JDEQSim" >
		<param name="carSize" value="7.5" />
		<param name="endTime" value="undefined" />
		<param name="flowCapacityFactor" value="1.0" />
		<param name="gapTravelSpeed" value="15.0" />
		<param name="minimumInFlowCapacity" value="1800.0" />
		<param name="squeezeTime" value="1800.0" />
		<param name="storageCapacityFactor" value="1.0" />
	</module>
	<module name="TimeAllocationMutator" >
		<!-- Default:true; Defines whether time mutation changes an activity's duration. -->
		<param name="mutationAffectsDuration" value="true" />
		<!-- Default:1800.0; Defines how many seconds a time mutation can maximally shift a time. -->
		<param name="mutationRange" value="1800.0" />
		<!-- false; Use individual settings for each subpopulation. If enabled but no settings are found, regular settings are uses as fallback. -->
		<param name="useIndividualSettingsForSubpopulations" value="false" />
	</module>
	<module name="changeMode" >
		<!-- Defines whether car availability is considered be considered or not. An agent has no car only if it has no license, or never access to a car. Default: true -->
		<param name="ignoreCarAvailability" value="true" />
		<!-- Defines the mode switch behavior. Possible values [Lorg.matsim.core.config.groups.ChangeModeConfigGroup$Behavior;@7e057f43 Default: fromSpecifiedModesToSpecifiedModes. -->
		<param name="modeSwitchBehavior" value="fromSpecifiedModesToSpecifiedModes" />
		<!-- Defines all the modes available, including chain-based modes, seperated by commas -->
		<param name="modes" value="car,pt" />
	</module>
	<module name="controler" >
		<!-- Sets whether graphs showing some analyses should automatically be generated during the simulation. The generation of graphs usually takes a small amount of time that does not have any weight in big simulations, but add a significant overhead in smaller runs or in test cases where the graphical output is not even requested. -->
		<param name="createGraphs" value="true" />
		<!-- true if at the end of a run, plans, network, config etc should be dumped to a file -->
		<param name="dumpDataAtEnd" value="true" />
		<!-- Default=false. If enabled, the router takes travel times needed for turning moves into account. Cannot be used if the (Fast)AStarLandmarks routing or TravelTimeCalculator.separateModes is enabled. -->
		<param name="enableLinkToLinkRouting" value="false" />
		<!-- Default=xml; Specifies the file format for writing events. Currently supported: xml.
		Multiple values can be specified separated by commas (','). -->
		<param name="eventsFileFormat" value="xml" />
		<!-- Default=0;  -->
		<param name="firstIteration" value="0" />
		<!-- Default=1000;  -->
		<param name="lastIteration" value="10" />
		<!-- Defines which mobility simulation will be used. Currently supported: qsim JDEQSim 
		Depending on the chosen mobsim, you'll have to add additional config modules to configure the corresponding mobsim.
		For 'qsim', add a module 'qsim' to the config. -->
		<param name="mobsim" value="qsim" />
		<param name="outputDirectory" value="C:/Users/Wei/Documents/matsim/contribs/emissions/test/output1/" />
		<!-- Possible values: failIfDirectoryExists, overwriteExistingFiles, deleteDirectoryIfExists -->
		<param name="overwriteFiles" value="deleteDirectoryIfExists" />
		<!-- The type of routing (least cost path) algorithm used, may have the values: Dijkstra, FastDijkstra, AStarLandmarks or FastAStarLandmarks -->
		<param name="routingAlgorithmType" value="Dijkstra" />
		<!-- An identifier for the current run which is used as prefix for output files and mentioned in output xml files etc. -->
		<param name="runId" value="null" />
		<!-- Comma-separated list of visualizer output file formats. `transims', `googleearth', and `otfvis'. -->
		<param name="snapshotFormat" value="" />
		<!-- iterationNumber % writeEventsInterval == 0 defines in which iterations events are written to a file. `0' disables events writing completely. -->
		<param name="writeEventsInterval" value="5" />
		<!-- iterationNumber % writePlansInterval == 0 defines (hopefully) in which iterations plans are written to a file. `0' disables plans writing completely.  Some plans in early iterations are always written -->
		<param name="writePlansInterval" value="5" />
		<!-- iterationNumber % writeSnapshotsInterval == 0 defines in which iterations snapshots are written to a file. `0' disables snapshots writing completely -->
		<param name="writeSnapshotsInterval" value="1" />
	</module>
	<module name="counts" >
		<!-- Transport modes that will be respected for the counts comparison. 'car' is default, which includes also bussed from the pt simulation module. Use this parameter in combination with 'filterModes' = true! -->
		<param name="analyzedModes" value="car" />
		<!-- Specifies over how many iterations the link volumes should be averaged that are used for the counts comparison. Use 1 or 0 to only use the link volumes of a single iteration. This values cannot be larger than the value specified for writeCountsInterval -->
		<param name="averageCountsOverIterations" value="5" />
		<!-- factor by which to re-scale the simulated values.  necessary when simulation runs with something different from 100%.  needs to be adapted manually -->
		<param name="countsScaleFactor" value="1.0" />
		<!-- distance to distanceFilterCenterNode to include counting stations. The unit of distance is the Euclidean distance implied by the coordinate system -->
		<param name="distanceFilter" value="null" />
		<!-- node id for center node of distance filter -->
		<param name="distanceFilterCenterNode" value="null" />
		<!-- If true, link counts from legs performed on modes not included in the 'analyzedModes' parameter are ignored. -->
		<param name="filterModes" value="false" />
		<!-- The Coordinates Reference System in which the coordinates are expressed in the input file. At import, the coordinates will be converted to the coordinate system defined in "global", and willbe converted back at export. If not specified, no conversion happens. -->
		<param name="inputCRS" value="null" />
		<!-- input file name to counts package -->
		<param name="inputCountsFile" value="null" />
		<!-- possible values: `html', `kml', `txt', `all' -->
		<param name="outputformat" value="txt" />
		<!-- Specifies how often the counts comparison should be calculated and written. -->
		<param name="writeCountsInterval" value="10" />
	</module>
	<module name="emissions" >
		<!-- REQUIRED: file with HBEFA 3.1 fleet average cold emission factors -->
		<param name="averageFleetColdEmissionFactorsFile" value="sample_EFA_ColdStart_vehcat_2005average.txt" />
		<!-- REQUIRED: file with HBEFA 3.1 fleet average warm emission factors -->
		<param name="averageFleetWarmEmissionFactorsFile" value="EFA_HOT_Vehcat_Warm2010_average.txt" />
		<!-- if true, only flat emissions will be considered irrespective of pricing either flat air pollution or exposure of air pollution. -->
		<param name="consideringCO2Costs" value="true" />
		<!-- OPTIONAL: file with HBEFA 3.1 detailed cold emission factors -->
		<param name="detailedColdEmissionFactorsFile" value="sample_EFA_ColdStart_SubSegm_2005detailed.txt" />
		<!-- OPTIONAL: file with HBEFA 3.1 detailed warm emission factors -->
		<param name="detailedWarmEmissionFactorsFile" value="sample_EFA_HOT_SubSegm_2005detailed.txt" />
		<!-- A factor, by which the emission cost factors from literature (Maibach et al. (2008)) are increased. -->
		<param name="emissionCostMultiplicationFactor" value="1.0" />
		<!-- A factor to include efficiency of the vehicles; the factor is applied to the whole fleet.  -->
		<param name="emissionEfficiencyFactor" value="1.0" />
		<!-- REQUIRED if source of the HBEFA road type is set to fromFile. It maps from input road types to HBEFA 3.1 road type strings -->
		<param name="emissionRoadTypeMappingFile" value="sample_roadTypeMapping.txt" />
		<!-- Source of the HBEFFA road type. The options are: fromFile fromLinkAttributes.
fromLinkAttributes is default i.e. put HBEFA road type directly to the link attributes. -->
		<param name="hbefaRoadTypeSource" value="fromFile" />
		<!-- The vehicle information (or vehicles file) should be passed to the scenario.The definition of emission specifications:
		 - REQUIRED: it must start with the respective HbefaVehicleCategory followed by `;'
		 - OPTIONAL: if detailed emission calculation is switched on, the emission specifications should aditionally contain HbefaVehicleAttributes (`Technology;SizeClasse;EmConcept'), corresponding to the strings in detailedWarmEmissionFactorsFile.
		TRUE: for backward compatibility; vehicle type id is used for the emission specifications. 
		FALSE: vehicle description is used for the emission specifications.The emission specifications of a vehicle type should be surrounded by emission specification markers i.e.BEGIN_EMISSIONS and END_EMISSIONS. -->
		<param name="isUsingVehicleTypeIdAsVehicleDescription" value="true" />
		<!-- if false, emission events will not appear in the events file. -->
		<param name="isWritingEmissionsEvents" value="true" />
		<!-- if true then detailed emission factor files must be provided! -->
		<param name="usingDetailedEmissionCalculation" value="true" />
	</module>
	<module name="facilities" >
		<!-- This defines how facilities should be created. Possible values: none fromFile setInScenario onePerActivityLinkInPlansFile onePerActivityLocationInPlansFile  -->
		<param name="facilitiesSource" value="none" />
		<!-- A prefix to be used in activityFacility id. -->
		<param name="idPrefix" value="" />
		<param name="inputCRS" value="null" />
		<param name="inputFacilitiesFile" value="null" />
		<param name="inputFacilityAttributesFile" value="null" />
	</module>
	<module name="global" >
		<param name="coordinateSystem" value="Atlantis" />
		<param name="insistingOnDeprecatedConfigVersion" value="true" />
		<!-- "global" number of threads.  This number is used, e.g., for replanning, but NOT in the mobsim.  This can typically be set to as many cores as you have available, or possibly even slightly more. -->
		<param name="numberOfThreads" value="2" />
		<param name="randomSeed" value="4711" />
	</module>
	<module name="households" >
		<param name="inputFile" value="null" />
		<param name="inputHouseholdAttributesFile" value="null" />
	</module>
	<module name="linkStats" >
		<!-- Specifies over how many iterations the link volumes should be averaged that are used for the link statistics. Use 1 or 0 to only use the link volumes of a single iteration. This values cannot be larger than the value specified for writeLinkStatsInterval -->
		<param name="averageLinkStatsOverIterations" value="5" />
		<!-- Specifies how often the link stats should be calculated and written. Use 0 to disable the generation of link stats. -->
		<param name="writeLinkStatsInterval" value="10" />
	</module>
	<module name="network" >
		<param name="inputCRS" value="null" />
		<param name="inputChangeEventsFile" value="null" />
		<param name="inputNetworkFile" value="sample_network_MUC.xml" />
		<param name="laneDefinitionsFile" value="null" />
		<param name="timeVariantNetwork" value="false" />
	</module>
	<module name="parallelEventHandling" >
		<!-- Estimated number of events during mobsim run. An optional optimization hint for the framework. -->
		<param name="estimatedNumberOfEvents" value="null" />
		<param name="numberOfThreads" value="null" />
		<!-- If enabled, each event handler is assigned to its own thread. Note that enabling this feature disabled the numberOfThreads option! This feature is still experimental! -->
		<param name="oneThreadPerHandler" value="false" />
		<!-- If enabled, it is ensured that all events that are created during a time step of the mobility simulation are processed before the next time step is simulated. E.g. neccessary when within-day replanning is used. -->
		<param name="synchronizeOnSimSteps" value="true" />
	</module>
	<module name="planCalcScore" >
		<!-- logit model scale parameter. default: 1.  Has name and default value for historical reasons (see Bryan Raney's phd thesis). -->
		<param name="BrainExpBeta" value="1.0" />
		<param name="PathSizeLogitBeta" value="1.0" />
		<!-- fraction of iterations at which MSA score averaging is started. The matsim theory department suggests to use this together with switching off choice set innovation (where a similar switch exists), but it has not been tested yet. -->
		<param name="fractionOfIterationsToStartScoreMSA" value="null" />
		<!-- new_score = (1-learningRate)*old_score + learningRate * score_from_mobsim.  learning rates close to zero emulate score averaging, but slow down initial convergence -->
		<param name="learningRate" value="1.0" />
		<!-- There used to be a plateau between duration=0 and duration=zeroUtilityDuration. This caused durations to evolve to zero once they were below zeroUtilityDuration, causing problems.  Only use this switch if you need to be backwards compatible with some old results.  (changed nov'13) -->
		<param name="usingOldScoringBelowZeroUtilityDuration" value="false" />
		<!-- write a plans file in each iteration directory which contains what each agent actually did, and the score it received. -->
		<param name="writeExperiencedPlans" value="false" />
		<parameterset type="scoringParameters" >
			<param name="earlyDeparture" value="-0.0" />
			<param name="lateArrival" value="-18.0" />
			<param name="marginalUtilityOfMoney" value="1.0" />
			<param name="performing" value="6.0" />
			<param name="subpopulation" value="null" />
			<param name="utilityOfLineSwitch" value="-1.0" />
			<param name="waiting" value="-0.0" />
			<param name="waitingPt" value="-6.0" />
			<parameterset type="activityParams" >
				<param name="activityType" value="dummy" />
				<param name="closingTime" value="undefined" />
				<param name="earliestEndTime" value="undefined" />
				<param name="latestStartTime" value="undefined" />
				<param name="minimalDuration" value="undefined" />
				<param name="openingTime" value="undefined" />
				<param name="priority" value="1.0" />
				<param name="scoringThisActivityAtAll" value="true" />
				<!-- typical duration of activity.  needs to be defined and non-zero.  in sec. -->
				<param name="typicalDuration" value="02:00:00" />
				<!-- method to compute score at typical duration.  Options: | uniform | relative | Use uniform for backwards compatibility (all activities same score; higher proba to drop long acts). -->
				<param name="typicalDurationScoreComputation" value="relative" />
			</parameterset>
			<parameterset type="activityParams" >
				<param name="activityType" value="car interaction" />
				<param name="closingTime" value="undefined" />
				<param name="earliestEndTime" value="undefined" />
				<param name="latestStartTime" value="undefined" />
				<param name="minimalDuration" value="undefined" />
				<param name="openingTime" value="undefined" />
				<param name="priority" value="1.0" />
				<param name="scoringThisActivityAtAll" value="false" />
				<param name="typicalDuration" value="undefined" />
				<param name="typicalDurationScoreComputation" value="relative" />
			</parameterset>
			<parameterset type="activityParams" >
				<param name="activityType" value="pt interaction" />
				<param name="closingTime" value="undefined" />
				<param name="earliestEndTime" value="undefined" />
				<param name="latestStartTime" value="undefined" />
				<param name="minimalDuration" value="undefined" />
				<param name="openingTime" value="undefined" />
				<param name="priority" value="1.0" />
				<param name="scoringThisActivityAtAll" value="false" />
				<param name="typicalDuration" value="undefined" />
				<param name="typicalDurationScoreComputation" value="relative" />
			</parameterset>
			<parameterset type="activityParams" >
				<param name="activityType" value="bike interaction" />
				<param name="closingTime" value="undefined" />
				<param name="earliestEndTime" value="undefined" />
				<param name="latestStartTime" value="undefined" />
				<param name="minimalDuration" value="undefined" />
				<param name="openingTime" value="undefined" />
				<param name="priority" value="1.0" />
				<param name="scoringThisActivityAtAll" value="false" />
				<param name="typicalDuration" value="undefined" />
				<param name="typicalDurationScoreComputation" value="relative" />
			</parameterset>
			<parameterset type="activityParams" >
				<param name="activityType" value="other interaction" />
				<param name="closingTime" value="undefined" />
				<param name="earliestEndTime" value="undefined" />
				<param name="latestStartTime" value="undefined" />
				<param name="minimalDuration" value="undefined" />
				<param name="openingTime" value="undefined" />
				<param name="priority" value="1.0" />
				<param name="scoringThisActivityAtAll" value="false" />
				<param name="typicalDuration" value="undefined" />
				<param name="typicalDurationScoreComputation" value="relative" />
			</parameterset>
			<parameterset type="activityParams" >
				<param name="activityType" value="walk interaction" />
				<param name="closingTime" value="undefined" />
				<param name="earliestEndTime" value="undefined" />
				<param name="latestStartTime" value="undefined" />
				<param name="minimalDuration" value="undefined" />
				<param name="openingTime" value="undefined" />
				<param name="priority" value="1.0" />
				<param name="scoringThisActivityAtAll" value="false" />
				<param name="typicalDuration" value="undefined" />
				<param name="typicalDurationScoreComputation" value="relative" />
			</parameterset>
			<parameterset type="activityParams" >
				<param name="activityType" value="home" />
				<param name="closingTime" value="undefined" />
				<param name="earliestEndTime" value="undefined" />
				<param name="latestStartTime" value="undefined" />
				<param name="minimalDuration" value="undefined" />
				<param name="openingTime" value="undefined" />
				<param name="priority" value="1.0" />
				<param name="scoringThisActivityAtAll" value="true" />
				<param name="typicalDuration" value="12:00:00" />
				<param name="typicalDurationScoreComputation" value="relative" />
			</parameterset>
			<parameterset type="activityParams" >
				<param name="activityType" value="work" />
				<param name="closingTime" value="undefined" />
				<param name="earliestEndTime" value="undefined" />
				<param name="latestStartTime" value="undefined" />
				<param name="minimalDuration" value="undefined" />
				<param name="openingTime" value="undefined" />
				<param name="priority" value="1.0" />
				<param name="scoringThisActivityAtAll" value="true" />
				<param name="typicalDuration" value="08:00:00" />
				<param name="typicalDurationScoreComputation" value="relative" />
			</parameterset>
			<parameterset type="modeParams" >
				<!-- [utils] alternative-specific constant.  no guarantee that this is used anywhere. default=0 to be backwards compatible for the time being -->
				<param name="constant" value="0.0" />
				<!-- [utils/m] utility of walking per m, normally negative.  this is on top of the time (dis)utility. -->
				<param name="marginalUtilityOfDistance_util_m" value="0.0" />
				<!-- [utils/hr] additional marginal utility of traveling.  normally negative.  this comes on top of the opportunity cost of time -->
				<param name="marginalUtilityOfTraveling_util_hr" value="-6.0" />
				<param name="mode" value="ride" />
				<!-- [unit_of_money/m] conversion of distance into money. Normally negative. -->
				<param name="monetaryDistanceRate" value="0.0" />
			</parameterset>
			<parameterset type="modeParams" >
				<param name="constant" value="0.0" />
				<param name="marginalUtilityOfDistance_util_m" value="0.0" />
				<param name="marginalUtilityOfTraveling_util_hr" value="-6.0" />
				<param name="mode" value="car" />
				<param name="monetaryDistanceRate" value="0.0" />
			</parameterset>
			<parameterset type="modeParams" >
				<param name="constant" value="0.0" />
				<param name="marginalUtilityOfDistance_util_m" value="0.0" />
				<param name="marginalUtilityOfTraveling_util_hr" value="-6.0" />
				<param name="mode" value="pt" />
				<param name="monetaryDistanceRate" value="0.0" />
			</parameterset>
			<parameterset type="modeParams" >
				<param name="constant" value="0.0" />
				<param name="marginalUtilityOfDistance_util_m" value="0.0" />
				<param name="marginalUtilityOfTraveling_util_hr" value="-6.0" />
				<param name="mode" value="walk" />
				<param name="monetaryDistanceRate" value="0.0" />
			</parameterset>
			<parameterset type="modeParams" >
				<param name="constant" value="0.0" />
				<param name="marginalUtilityOfDistance_util_m" value="0.0" />
				<param name="marginalUtilityOfTraveling_util_hr" value="-6.0" />
				<param name="mode" value="bike" />
				<param name="monetaryDistanceRate" value="0.0" />
			</parameterset>
			<parameterset type="modeParams" >
				<param name="constant" value="0.0" />
				<param name="marginalUtilityOfDistance_util_m" value="0.0" />
				<param name="marginalUtilityOfTraveling_util_hr" value="-6.0" />
				<param name="mode" value="other" />
				<param name="monetaryDistanceRate" value="0.0" />
			</parameterset>
		</parameterset>
	</module>
	<module name="plans" >
		<!-- String: minOfDurationAndEndTime tryEndTimeThenDuration endTimeOnly. Anything besides minOfDurationAndEndTime will internally use a different (simpler) version of the TimeAllocationMutator. -->
		<param name="activityDurationInterpretation" value="tryEndTimeThenDuration" />
		<param name="inputCRS" value="null" />
		<!-- Path to a file containing person attributes (required file format: ObjectAttributes). -->
		<param name="inputPersonAttributesFile" value="null" />
		<param name="inputPlansFile" value="sample_population_MUC.xml" />
		<!-- Defines how routes are stored in memory. Currently supported: LinkNetworkRoute, CompressedNetworkRoute. -->
		<param name="networkRouteType" value="LinkNetworkRoute" />
		<!-- (not tested) will remove plan attributes that are presumably not used, such as activityStartTime. default=false -->
		<param name="removingUnnecessaryPlanAttributes" value="false" />
		<!-- Name of the (Object)Attribute defining the subpopulation to which pertains a Person (as freight, through traffic, etc.). The attribute must be of String type.  Change away from default only in desperate situations. -->
		<param name="subpopulationAttributeName" value="subpopulation" />
	</module>
	<module name="planscalcroute" >
		<!-- All the modes for which the router is supposed to generate network routes (like car) -->
		<param name="networkModes" value="car" />
		<parameterset type="teleportedModeParameters" >
			<param name="beelineDistanceFactor" value="1.3" />
			<param name="mode" value="bike" />
			<!-- Free-speed factor for a teleported mode. Travel time = teleportedModeFreespeedFactor * <freespeed car travel time>. Insert a line like this for every such mode. Please do not set teleportedModeFreespeedFactor as well as teleportedModeSpeed for the same mode, but if you do, +teleportedModeFreespeedFactor wins over teleportedModeSpeed. -->
			<param name="teleportedModeFreespeedFactor" value="null" />
			<!-- Speed for a teleported mode. Travel time = (<beeline distance> * beelineDistanceFactor) / teleportedModeSpeed. Insert a line like this for every such mode. -->
			<param name="teleportedModeSpeed" value="4.166666666666667" />
		</parameterset>
		<parameterset type="teleportedModeParameters" >
			<param name="beelineDistanceFactor" value="1.3" />
			<param name="mode" value="walk" />
			<param name="teleportedModeFreespeedFactor" value="null" />
			<param name="teleportedModeSpeed" value="0.8333333333333333" />
		</parameterset>
		<parameterset type="teleportedModeParameters" >
			<param name="beelineDistanceFactor" value="1.3" />
			<param name="mode" value="undefined" />
			<param name="teleportedModeFreespeedFactor" value="null" />
			<param name="teleportedModeSpeed" value="13.88888888888889" />
		</parameterset>
		<parameterset type="teleportedModeParameters" >
			<param name="beelineDistanceFactor" value="1.3" />
			<param name="mode" value="pt" />
			<param name="teleportedModeFreespeedFactor" value="2.0" />
			<param name="teleportedModeSpeed" value="null" />
		</parameterset>
	</module>
	<module name="ptCounts" >
		<param name="countsScaleFactor" value="1.0" />
		<param name="distanceFilter" value="null" />
		<param name="distanceFilterCenterNode" value="null" />
		<!-- input file containing the alighting (getting off) counts for pt -->
		<param name="inputAlightCountsFile" value="null" />
		<!-- input file containing the boarding (getting on) counts for pt -->
		<param name="inputBoardCountsFile" value="null" />
		<!-- input file containing the occupancy counts for pt -->
		<param name="inputOccupancyCountsFile" value="null" />
		<param name="outputformat" value="null" />
		<!-- every how many iterations (starting with 0) counts comparisons are generated -->
		<param name="ptCountsInterval" value="10" />
	</module>
	<module name="qsim" >
		<param name="endTime" value="24:00:00" />
		<param name="flowCapacityFactor" value="0.01" />
		<!-- decides if waiting vehicles enter the network after or before the already driving vehicles were moved. Default: false -->
		<param name="insertingWaitingVehiclesBeforeDrivingVehicles" value="false" />
		<!-- If link dynamics is set as SeepageQ, set to false if all seep modes should perform seepage. Default is true (better option). -->
		<param name="isRestrictingSeepage" value="true" />
		<!-- If link dynamics is set as SeepageQ, set to true if seep mode do not consumes any space on the link. Default is false. -->
		<param name="isSeepModeStorageFree" value="false" />
		<!-- default: FIFO; options: FIFO PassingQ SeepageQ -->
		<param name="linkDynamics" value="FIFO" />
		<!-- The (initial) width of the links of the network. Use positive floating point values. This is used only for visualisation. -->
		<param name="linkWidth" value="30.0" />
		<!-- [comma-separated list] Defines which modes are congested modes. Technically, these are the modes that the departure handler of the netsimengine handles.  Effective cell size, effective lane width, flow capacity factor, and storage capacity factor need to be set with diligence.  Need to be vehicular modes to make sense. -->
		<param name="mainMode" value="car" />
		<!-- Shortens a link in the visualization, i.e. its start and end point are moved into towards the center. Does not affect traffic flow.  -->
		<param name="nodeOffset" value="0.0" />
		<param name="numberOfThreads" value="1" />
		<!-- Boolean. `true': stuck vehicles are removed, aborting the plan; `false': stuck vehicles are forced into the next link. `false' is probably the better choice. -->
		<param name="removeStuckVehicles" value="false" />
		<!-- If link dynamics is set as SeepageQ, set a seep mode. Default is bike. -->
		<param name="seepMode" value="bike" />
		<!-- Possible values: minOfEndtimeAndMobsimFinished, onlyUseEndtime -->
		<param name="simEndtimeInterpretation" value="null" />
		<!-- Options: maxOfStarttimeAndEarliestActivityEnd onlyUseStarttime  -->
		<param name="simStarttimeInterpretation" value="maxOfStarttimeAndEarliestActivityEnd" />
		<!-- snapshotStyle. One of: equiDist queue withHoles withHolesAndShowHoles kinematicWaves  -->
		<param name="snapshotStyle" value="equiDist" />
		<param name="snapshotperiod" value="00:00:00" />
		<param name="startTime" value="00:00:00" />
		<param name="storageCapacityFactor" value="0.01" />
		<!-- time in seconds.  Time after which the frontmost vehicle on a link is called `stuck' if it does not move. -->
		<param name="stuckTime" value="10.0" />
		<param name="timeStepSize" value="00:00:01" />
		<!-- options: queue withHoles kinematicWaves  -->
		<param name="trafficDynamics" value="queue" />
		<!-- Set this parameter to true if lanes should be used, false if not. -->
		<param name="useLanes" value="false" />
		<!-- If a route does not reference a vehicle, agents will use the vehicle with the same id as their own. -->
		<param name="usePersonIdForMissingVehicleId" value="true" />
		<!-- If false, the qsim accumulates fractional flows up to one flow unit in every time step.  If true, flows are updated only if an agent wants to enter the link or an agent is added to buffer. Default is true. -->
		<param name="usingFastCapacityUpdate" value="true" />
		<!-- if the qsim should use as many runners as there are threads (Christoph's dissertation version) or more of them, together with a thread pool (seems to be faster in some situations, but is not tested). -->
		<param name="usingThreadpool" value="true" />
		<!-- Defines what happens if an agent wants to depart, but the specified vehicle is not available. One of: teleport wait exception  -->
		<param name="vehicleBehavior" value="teleport" />
		<!-- If vehicles should all be the same default vehicle, or come from the vehicles file, or something else.  Possible values:  defaultVehicle modeVehicleTypesFromVehiclesData fromVehiclesData -->
		<param name="vehiclesSource" value="fromVehiclesData" />
	</module>
	<module name="strategy" >
		<!-- the external executable will be called with a config file as argument.  This is the pathname to a possible skeleton config, to which additional information will be added.  Can be null. -->
		<param name="ExternalExeConfigTemplate" value="null" />
		<!-- time out value (in seconds) after which matsim will consider the external strategy as failed -->
		<param name="ExternalExeTimeOut" value="3600" />
		<!-- root directory for temporary files generated by the external executable. Provided as a service; I don't think this is used by MATSim. -->
		<param name="ExternalExeTmpFileRootDir" value="null" />
		<!-- fraction of iterations where innovative strategies are switched off.  Something link 0.8 should be good.  E.g. if you run from iteration 400 to iteration 500, innovation is switched off at iteration 480 -->
		<param name="fractionOfIterationsToDisableInnovation" value="Infinity" />
		<!-- maximum number of plans per agent.  ``0'' means ``infinity''.  Currently (2010), ``5'' is a good number -->
		<param name="maxAgentPlanMemorySize" value="5" />
		<!-- strategyName of PlanSelector for plans removal.  Possible defaults: WorstPlanSelector SelectRandom SelectExpBetaForRemoval ChangeExpBetaForRemoval PathSizeLogitSelectorForRemoval . The current default, WorstPlanSelector is not a good choice from a discrete choice theoretical perspective. Alternatives, however, have not been systematically tested. kai, feb'12 -->
		<param name="planSelectorForRemoval" value="WorstPlanSelector" />
		<parameterset type="strategysettings" >
			<!-- iteration after which strategy will be disabled.  most useful for ``innovative'' strategies (new routes, new times, ...). Normally, better use fractionOfIterationsToDisableInnovation -->
			<param name="disableAfterIteration" value="-1" />
			<!-- path to external executable (if applicable) -->
			<param name="executionPath" value="null" />
			<!-- strategyName of strategy.  Possible default names: SelectRandomBestScoreKeepLastSelectedChangeExpBetaSelectExpBetaSelectPathSizeLogit (selectors), ReRouteTimeAllocationMutatorTimeAllocationMutator_ReRouteChangeSingleTripModeChangeTripModeSubtourModeChoice (innovative strategies). -->
			<param name="strategyName" value="ChangeExpBeta" />
			<!-- subpopulation to which the strategy applies. "null" refers to the default population, that is, the set of persons for which no explicit subpopulation is defined (ie no subpopulation attribute) -->
			<param name="subpopulation" value="null" />
			<!-- weight of a strategy: for each agent, a strategy will be selected with a probability proportional to its weight -->
			<param name="weight" value="0.9" />
		</parameterset>
		<parameterset type="strategysettings" >
			<param name="disableAfterIteration" value="-1" />
			<param name="executionPath" value="null" />
			<param name="strategyName" value="ReRoute" />
			<param name="subpopulation" value="null" />
			<param name="weight" value="0.1" />
		</parameterset>
	</module>
	<module name="subtourModeChoice" >
		<!-- Only for backwards compatibility.  Defines if only trips from modes list should change mode, or all trips.  Options: fromAllModesToSpecifiedModes fromSpecifiedModesToSpecifiedModes  -->
		<param name="behavior" value="fromSpecifiedModesToSpecifiedModes" />
		<!-- Defines the chain-based modes, seperated by commas -->
		<param name="chainBasedModes" value="car,bike" />
		<!-- Defines whether car availability must be considered or not. A agent has no car only if it has no license, or never access to a car -->
		<param name="considerCarAvailability" value="false" />
		<param name="modes" value="car,pt,bike,walk" />
	</module>
	<module name="transit" >
		<!-- The Coordinates Reference System in which the coordinates are expressed in the input file. At import, the coordinates will be converted to the coordinate system defined in "global", and willbe converted back at export. If not specified, no conversion happens. -->
		<param name="inputScheduleCRS" value="null" />
		<!-- Optional input file containing additional attributes for transit lines, stored as ObjectAttributes. -->
		<param name="transitLinesAttributesFile" value="null" />
		<!-- Comma-separated list of transportation modes that are handled as transit. Defaults to 'pt'. -->
		<param name="transitModes" value="pt" />
		<!-- Input file containing the transit schedule to be simulated. -->
		<param name="transitScheduleFile" value="null" />
		<!-- Optional input file containing additional attributes for transit stop facilities, stored as ObjectAttributes. -->
		<param name="transitStopsAttributesFile" value="null" />
		<!-- Set this parameter to true if transit should be simulated, false if not. -->
		<param name="useTransit" value="false" />
		<!-- Input file containing the vehicles used by the departures in the transit schedule. -->
		<param name="vehiclesFile" value="null" />
	</module>
	<module name="transitRouter" >
		<!-- additional time the router allocates when a line switch happens. Can be interpreted as a 'safety' time that agents need to safely transfer from one line to another -->
		<param name="additionalTransferTime" value="0.0" />
		<!-- Factor with which direct walk generalized cost is multiplied before it is compared to the pt generalized cost.  Set to a very high value to reduce direct walk results. -->
		<param name="directWalkFactor" value="1.0" />
		<!-- step size to increase searchRadius if no stops are found -->
		<param name="extensionRadius" value="200.0" />
		<!-- maximum beeline distance between stops that agents could transfer to by walking -->
		<param name="maxBeelineWalkConnectionDistance" value="100.0" />
		<!-- the radius in which stop locations are searched, given a start or target coordinate -->
		<param name="searchRadius" value="1000.0" />
	</module>
	<module name="travelTimeCalculator" >
		<param name="analyzedModes" value="car" />
		<param name="calculateLinkToLinkTravelTimes" value="false" />
		<param name="calculateLinkTravelTimes" value="true" />
		<param name="filterModes" value="false" />
		<!-- The lenght (in sec) of the time period that is splited into time bins; an additional time bin is created to aggregate all travel times collected after maxTime -->
		<param name="maxTime" value="108000" />
		<!-- If true, link travel times are measured and calculated separately for each mode in analyzedModes. Other modes are ignored. If true, filterModes has no effect. -->
		<param name="separateModes" value="false" />
		<!-- How to deal with congested time bins that have no link entry events. `optimistic' assumes free speed (too optimistic); 'experimental_LastMile' is experimental and probably too pessimistic. -->
		<param name="travelTimeAggregator" value="optimistic" />
		<!-- The size of the time bin (in sec) into which the link travel times are aggregated for the router -->
		<param name="travelTimeBinSize" value="900" />
		<!-- possible values: TravelTimeCalculatorArray TravelTimeCalculatorHashMap  -->
		<param name="travelTimeCalculator" value="TravelTimeCalculatorArray" />
		<!-- How to deal with link entry times at different positions during the time bin. Currently supported: average, linearinterpolation -->
		<param name="travelTimeGetter" value="average" />
	</module>
	<module name="vehicles" >
		<param name="vehiclesFile" value="sample_emissionVehicles_MUC.xml" />
	</module>
	<module name="vspExperimental" >
		<!-- (do not use except of you have to) There was a problem with pt interaction scoring.  Some people solved it by overwriting the parameters of the pt interaction activity type.  Doing this now throws an Exception.  If you still insist on doing this, set the following to true. -->
		<param name="isAbleToOverwritePtInteractionParams" value="false" />
		<param name="isGeneratingBoardingDeniedEvent" value="false" />
		<!-- if an approximation of the opportunity cost of time is included into the radius calculation for location choice.`true' will be faster, but it is an approximation.  Default is `true'; `false' is available for backwards compatibility. -->
		<param name="isUsingOpportunityCostOfTimeForLocationChoice" value="true" />
		<param name="logitScaleParamForPlansRemoval" value="1.0" />
		<!-- Options: | ignore | info | warn | abort | .  When violating VSP defaults, this results in nothing, logfile infos, logfile warnings, or aborts.  Members of VSP should use `abort' or talk to kai. -->
		<param name="vspDefaultsCheckingLevel" value="warn" />
		<!-- if true then writes output_events in output directory.  default is `false'. Will only work when lastIteration is multiple of events writing interval -->
		<param name="writingOutputEvents" value="true" />
	</module>

</config>

2018-10-19 16:00:32,259  INFO ControlerUtils:63 Complete config dump done.
2018-10-19 16:00:32,259  INFO ControlerUtils:64 Checking consistency of config...
2018-10-19 16:00:32,259  INFO PlanCalcScoreConfigGroup$ScoringParameterSet:1379 NO OPENING OR CLOSING TIMES DEFINED!

There is no activity type that has an opening *and* closing time (or opening time and late penalty) defined.
This usually means that the activity chains can be shifted by an arbitrary
number of hours without having an effect on the score of the plans, and thus
resulting in wrong results / traffic patterns.
If you are using MATSim without time adaptation, you can ignore this warning.


2018-10-19 16:00:32,261  INFO VspConfigConsistencyCheckerImpl:72 running checkConsistency ...
2018-10-19 16:00:32,261  WARN VspConfigConsistencyCheckerImpl:83 you are insisting on config v1.  vsp default is using v2.
2018-10-19 16:00:32,261  WARN VspConfigConsistencyCheckerImpl:190 You are not setting fractionOfIterationsToStartScoreMSA; vsp default is to set this to something like 0.8.  This means you have to add the following lines to your config file: 
2018-10-19 16:00:32,261  WARN VspConfigConsistencyCheckerImpl:192 <module name="planCalcScore">
2018-10-19 16:00:32,261  WARN VspConfigConsistencyCheckerImpl:193 	<param name="fractionOfIterationsToStartScoreMSA" value="0.8" />
2018-10-19 16:00:32,262  WARN VspConfigConsistencyCheckerImpl:194 </module>
2018-10-19 16:00:32,262  WARN VspConfigConsistencyCheckerImpl:203 You are not removing unnecessary plan attributes; vsp default is to do that.
2018-10-19 16:00:32,262  WARN VspConfigConsistencyCheckerImpl:236 found `plansCalcRoute.insertingAccessEgressWalk==false'; vsp should use `true' or talk to Kai. 
2018-10-19 16:00:32,262  WARN VspConfigConsistencyCheckerImpl:243 found qsim.usePersonIdForMissingVehicleId==true; this is only for backwards compatibility and should rather be set to false
2018-10-19 16:00:32,262  WARN VspConfigConsistencyCheckerImpl:248 found `qsim.usingTravelTimeCheckInTeleporation==false'; vsp should try out `true' and report.
2018-10-19 16:00:32,262  WARN VspConfigConsistencyCheckerImpl:261  found 'qsim.trafficDynamics==queue'; vsp standard is`kinematicWaves'.
2018-10-19 16:00:32,262  WARN VspConfigConsistencyCheckerImpl:291 You have not set fractionOfIterationsToDisableInnovation; vsp default is to set this to 0.8 or similar.  Add the following config lines:
2018-10-19 16:00:32,262  WARN VspConfigConsistencyCheckerImpl:292 <module name="strategy">
2018-10-19 16:00:32,263  WARN VspConfigConsistencyCheckerImpl:293 	<param name="fractionOfIterationsToDisableInnovation" value="0.8" />
2018-10-19 16:00:32,263  WARN VspConfigConsistencyCheckerImpl:294 </module>
2018-10-19 16:00:32,263  INFO ControlerUtils:66 Checking consistency of config done.
2018-10-19 16:00:32,278  INFO PrepareForSimImpl:79 Network seems to be multimodal. Create car-only network which is handed over to PersonPrepareForSim.
2018-10-19 16:00:32,279  INFO NetworkImpl:167  node # 1
2018-10-19 16:00:32,279  INFO NetworkImpl:167  node # 4
2018-10-19 16:00:32,279  INFO NetworkImpl:167  node # 16
2018-10-19 16:00:32,279  INFO NetworkImpl:167  node # 64
2018-10-19 16:00:32,279  INFO NetworkImpl:167  node # 256
2018-10-19 16:00:32,279  INFO NetworkImpl:167  node # 1024
2018-10-19 16:00:32,281  INFO NetworkImpl:167  node # 4096
2018-10-19 16:00:32,288  INFO NetworkImpl:167  node # 16384
2018-10-19 16:00:32,294  INFO NetworkImpl:163  link # 1
2018-10-19 16:00:32,295  INFO NetworkImpl:163  link # 4
2018-10-19 16:00:32,295  INFO NetworkImpl:163  link # 16
2018-10-19 16:00:32,295  INFO NetworkImpl:163  link # 64
2018-10-19 16:00:32,295  INFO NetworkImpl:163  link # 256
2018-10-19 16:00:32,296  INFO NetworkImpl:163  link # 1024
2018-10-19 16:00:32,301  INFO NetworkImpl:163  link # 4096
2018-10-19 16:00:32,323  INFO NetworkImpl:163  link # 16384
2018-10-19 16:00:32,409 DEBUG NetworkRoutingProvider:75 requesting network routing module with routingMode=car;	mode=car
2018-10-19 16:00:32,425 DEBUG NetworkRoutingProvider:75 requesting network routing module with routingMode=car;	mode=car
2018-10-19 16:00:32,453  INFO NetworkImpl:426 building QuadTree for nodes: xrange(4399168.811219801,4540671.643109783); yrange(5289149.138068899,5406260.405919085)
2018-10-19 16:00:32,496  INFO NetworkImpl:435 Building QuadTree took 0.054 seconds.
2018-10-19 16:00:32,683  INFO Counter:70 [PersonPrepareForSim] handled person # 1
2018-10-19 16:00:32,688  INFO Counter:70 [PersonPrepareForSim] handled person # 2
2018-10-19 16:00:32,747  INFO Counter:70 [PersonPrepareForSim] handled person # 4
2018-10-19 16:00:32,871  INFO Counter:70 [PersonPrepareForSim] handled person # 8
2018-10-19 16:00:33,122  INFO Counter:70 [PersonPrepareForSim] handled person # 16
2018-10-19 16:00:33,529  INFO Counter:70 [PersonPrepareForSim] handled person # 32
2018-10-19 16:00:34,285  INFO Counter:70 [PersonPrepareForSim] handled person # 64
2018-10-19 16:00:35,099  INFO Counter:70 [PersonPrepareForSim] handled person # 128
2018-10-19 16:00:35,998  INFO Counter:70 [PersonPrepareForSim] handled person # 256
2018-10-19 16:00:38,450  INFO Counter:70 [PersonPrepareForSim] handled person # 512
2018-10-19 16:00:45,252  INFO Counter:70 [PersonPrepareForSim] handled person # 1024
2018-10-19 16:00:54,386  INFO Counter:70 [PersonPrepareForSim] handled person # 2048
2018-10-19 16:01:04,366  INFO Counter:70 [PersonPrepareForSim] handled person # 4096
2018-10-19 16:01:25,820  INFO Counter:76 [PersonPrepareForSim] handled person # 8132
2018-10-19 16:01:25,847  INFO AbstractController:123 ###################################################
2018-10-19 16:01:25,847  INFO AbstractController:124 ### ITERATION 0 BEGINS
2018-10-19 16:01:25,849  INFO ControlerListenerManagerImpl:145 calling notifyIterationStarts on org.matsim.analysis.LegHistogramListener
2018-10-19 16:01:25,849  INFO ControlerListenerManagerImpl:145 calling notifyIterationStarts on org.matsim.analysis.LinkStatsControlerListener
2018-10-19 16:01:25,849  INFO ControlerListenerManagerImpl:145 calling notifyIterationStarts on org.matsim.core.replanning.ReplanningContextImpl
2018-10-19 16:01:25,849  INFO ControlerListenerManagerImpl:145 calling notifyIterationStarts on org.matsim.core.scoring.ExperiencedPlansServiceImpl$1
2018-10-19 16:01:25,853  INFO ControlerListenerManagerImpl:145 calling notifyIterationStarts on org.matsim.core.scoring.ScoringFunctionsForPopulation$1
2018-10-19 16:01:25,887  INFO ControlerListenerManagerImpl:148 [it.0] all ControlerIterationStartsListeners called.
2018-10-19 16:01:25,888  INFO ControlerListenerManagerImpl:224 calling notifyBeforeMobsim on org.matsim.core.controler.corelisteners.EventsHandlingImpl
2018-10-19 16:01:25,888  INFO EventsManagerImpl:170 resetting Event-Handlers
2018-10-19 16:01:25,888  INFO EventsManagerImpl:177   org.matsim.core.trafficmonitoring.TravelTimeCalculator
2018-10-19 16:01:25,922  INFO EventsManagerImpl:177   org.matsim.core.scoring.EventsToLegs
2018-10-19 16:01:25,922  INFO EventsManagerImpl:177   org.matsim.contrib.emissions.WarmEmissionHandler
2018-10-19 16:01:25,922  INFO WarmEmissionAnalysisModule:125 resetting counters...
2018-10-19 16:01:25,922  INFO EventsManagerImpl:177   org.matsim.analysis.VolumesAnalyzer
2018-10-19 16:01:25,922  INFO EventsManagerImpl:177   org.matsim.contrib.emissions.ColdEmissionHandler
2018-10-19 16:01:25,922  INFO ColdEmissionAnalysisModule:108 resetting counters...
2018-10-19 16:01:25,922  INFO EventsManagerImpl:177   org.matsim.core.events.algorithms.Vehicle2DriverEventHandler
2018-10-19 16:01:25,922  INFO EventsManagerImpl:177   org.matsim.core.scoring.EventsToActivities
2018-10-19 16:01:25,923  INFO EventsManagerImpl:177   org.matsim.analysis.CalcLegTimes
2018-10-19 16:01:25,923  INFO EventsManagerImpl:177   org.matsim.analysis.LegHistogram
2018-10-19 16:01:25,923  INFO EventsManagerImpl:177   org.matsim.core.scoring.ScoringFunctionsForPopulation
2018-10-19 16:01:25,926  INFO EventsManagerImpl:144 adding Event-Handler: org.matsim.core.events.algorithms.EventWriterXML
2018-10-19 16:01:25,926  INFO EventsManagerImpl:148   org.matsim.core.events.algorithms.EventWriter
2018-10-19 16:01:25,926  INFO EventsManagerImpl:148   org.matsim.core.events.handler.BasicEventHandler
2018-10-19 16:01:25,926  INFO EventsManagerImpl:207     > org.matsim.api.core.v01.events.Event
2018-10-19 16:01:25,926  INFO EventsManagerImpl:156 
2018-10-19 16:01:25,926  INFO EventsManagerImpl:144 adding Event-Handler: org.matsim.core.events.algorithms.EventWriterXML
2018-10-19 16:01:25,927  INFO EventsManagerImpl:148   org.matsim.core.events.algorithms.EventWriter
2018-10-19 16:01:25,927  INFO EventsManagerImpl:148   org.matsim.core.events.handler.BasicEventHandler
2018-10-19 16:01:25,927  INFO EventsManagerImpl:207     > org.matsim.api.core.v01.events.Event
2018-10-19 16:01:25,927  INFO EventsManagerImpl:156 
2018-10-19 16:01:25,927  INFO ControlerListenerManagerImpl:224 calling notifyBeforeMobsim on org.matsim.core.controler.corelisteners.PlansDumpingImpl
2018-10-19 16:01:25,927  INFO PlansDumpingImpl:76 dumping plans...
2018-10-19 16:01:25,935  INFO Counter:70 [PopulationWriter] dumped person # 1
2018-10-19 16:01:25,936  INFO Counter:70 [PopulationWriter] dumped person # 2
2018-10-19 16:01:25,937  INFO Counter:70 [PopulationWriter] dumped person # 4
2018-10-19 16:01:25,939  INFO Counter:70 [PopulationWriter] dumped person # 8
2018-10-19 16:01:25,945  INFO Counter:70 [PopulationWriter] dumped person # 16
2018-10-19 16:01:25,957  INFO Counter:70 [PopulationWriter] dumped person # 32
2018-10-19 16:01:25,971  INFO Counter:70 [PopulationWriter] dumped person # 64
2018-10-19 16:01:25,982  INFO Counter:70 [PopulationWriter] dumped person # 128
2018-10-19 16:01:25,995  INFO Counter:70 [PopulationWriter] dumped person # 256
2018-10-19 16:01:26,043  INFO Counter:70 [PopulationWriter] dumped person # 512
2018-10-19 16:01:26,169  INFO Counter:70 [PopulationWriter] dumped person # 1024
2018-10-19 16:01:26,374  INFO Counter:70 [PopulationWriter] dumped person # 2048
2018-10-19 16:01:26,817  INFO Counter:70 [PopulationWriter] dumped person # 4096
2018-10-19 16:01:27,313  INFO PopulationWriter:139 Population written to: C:/Users/Wei/Documents/matsim/contribs/emissions/test/output1/ITERS/it.0/0.plans.xml.gz
2018-10-19 16:01:27,314  INFO Counter:76 [PopulationWriter] dumped person # 8132
2018-10-19 16:01:27,314  INFO PlansDumpingImpl:93 finished plans dump.
2018-10-19 16:01:27,314  INFO ControlerListenerManagerImpl:229 calling notifyBeforeMobsim on org.matsim.core.population.VspPlansCleaner
2018-10-19 16:01:27,327  INFO ControlerListenerManagerImpl:232 [it.0] all ControlerBeforeMobsimListeners called.
2018-10-19 16:01:27,332  INFO PrepareForMobsimImpl:79 Network seems to be multimodal. Create car-only network which is handed over to PersonPrepareForSim.
2018-10-19 16:01:27,332  INFO NetworkImpl:167  node # 1
2018-10-19 16:01:27,332  INFO NetworkImpl:167  node # 4
2018-10-19 16:01:27,332  INFO NetworkImpl:167  node # 16
2018-10-19 16:01:27,332  INFO NetworkImpl:167  node # 64
2018-10-19 16:01:27,333  INFO NetworkImpl:167  node # 256
2018-10-19 16:01:27,333  INFO NetworkImpl:167  node # 1024
2018-10-19 16:01:27,334  INFO NetworkImpl:167  node # 4096
2018-10-19 16:01:27,338  INFO NetworkImpl:167  node # 16384
2018-10-19 16:01:27,343  INFO NetworkImpl:163  link # 1
2018-10-19 16:01:27,343  INFO NetworkImpl:163  link # 4
2018-10-19 16:01:27,343  INFO NetworkImpl:163  link # 16
2018-10-19 16:01:27,343  INFO NetworkImpl:163  link # 64
2018-10-19 16:01:27,343  INFO NetworkImpl:163  link # 256
2018-10-19 16:01:27,345  INFO NetworkImpl:163  link # 1024
2018-10-19 16:01:27,348  INFO NetworkImpl:163  link # 4096
2018-10-19 16:01:27,365  INFO NetworkImpl:163  link # 16384
2018-10-19 16:01:27,430 DEBUG NetworkRoutingProvider:75 requesting network routing module with routingMode=car;	mode=car
2018-10-19 16:01:27,438 DEBUG NetworkRoutingProvider:75 requesting network routing module with routingMode=car;	mode=car
2018-10-19 16:01:27,447  INFO Counter:70 [PersonPrepareForSim] handled person # 1
2018-10-19 16:01:27,447  INFO Counter:70 [PersonPrepareForSim] handled person # 2
2018-10-19 16:01:27,447  INFO Counter:70 [PersonPrepareForSim] handled person # 4
2018-10-19 16:01:27,448  INFO Counter:70 [PersonPrepareForSim] handled person # 8
2018-10-19 16:01:27,448  INFO Counter:70 [PersonPrepareForSim] handled person # 16
2018-10-19 16:01:27,448  INFO Counter:70 [PersonPrepareForSim] handled person # 32
2018-10-19 16:01:27,448  INFO Counter:70 [PersonPrepareForSim] handled person # 64
2018-10-19 16:01:27,448  INFO Counter:70 [PersonPrepareForSim] handled person # 128
2018-10-19 16:01:27,449  INFO Counter:70 [PersonPrepareForSim] handled person # 256
2018-10-19 16:01:27,449  INFO Counter:70 [PersonPrepareForSim] handled person # 512
2018-10-19 16:01:27,450  INFO Counter:70 [PersonPrepareForSim] handled person # 1024
2018-10-19 16:01:27,452  INFO Counter:70 [PersonPrepareForSim] handled person # 2048
2018-10-19 16:01:27,455  INFO Counter:70 [PersonPrepareForSim] handled person # 4096
2018-10-19 16:01:27,461  INFO Counter:76 [PersonPrepareForSim] handled person # 8132
2018-10-19 16:01:27,533  INFO MobsimListenerManager:49 calling addQueueSimulationListener
2018-10-19 16:01:27,533  INFO MobsimListenerManager:53   assigned class org.matsim.core.mobsim.framework.listeners.MobsimListener to interface org.matsim.vis.snapshotwriters.SnapshotWriterManager
2018-10-19 16:01:27,534  INFO MobsimListenerManager:53   assigned class org.matsim.core.mobsim.framework.listeners.MobsimListener to interface org.matsim.core.mobsim.framework.listeners.MobsimListener
2018-10-19 16:01:27,534  INFO MobsimListenerManager:53   assigned class org.matsim.core.mobsim.framework.listeners.MobsimListener to interface org.matsim.core.mobsim.framework.listeners.MobsimAfterSimStepListener
2018-10-19 16:01:27,534  INFO MobsimListenerManager:53   assigned class org.matsim.core.mobsim.framework.listeners.MobsimListener to interface org.matsim.core.mobsim.framework.listeners.MobsimBeforeCleanupListener
2018-10-19 16:01:27,535  INFO MobsimListenerManager:53   assigned class org.matsim.core.mobsim.framework.listeners.MobsimListener to interface org.matsim.core.mobsim.framework.listeners.MobsimInitializedListener
2018-10-19 16:01:27,641  WARN QueueWithBuffer:378 Link 609311223_0 too small: enlarge storage capacity from: 0.028366519226099656 Vehicles to: 0.04254977883914948 Vehicles.  This is not fatal, but modifies the traffic flow dynamics.
2018-10-19 16:01:27,642  WARN QueueWithBuffer:378 Link 609311233_0 too small: enlarge storage capacity from: 0.02620306612599337 Vehicles to: 0.039304599188990055 Vehicles.  This is not fatal, but modifies the traffic flow dynamics.
2018-10-19 16:01:27,642  WARN QueueWithBuffer:378 Link 609311240_0 too small: enlarge storage capacity from: 0.030891748375789577 Vehicles to: 0.046337622563684365 Vehicles.  This is not fatal, but modifies the traffic flow dynamics.
2018-10-19 16:01:27,642  WARN QueueWithBuffer:378 Link 609311243_0 too small: enlarge storage capacity from: 0.027214832051341648 Vehicles to: 0.04082224807701248 Vehicles.  This is not fatal, but modifies the traffic flow dynamics.
2018-10-19 16:01:27,680  INFO Injector:81 === printInjector start ===
2018-10-19 16:01:27,681  INFO Injector:85 org.matsim.core.mobsim.qsim.qnetsimengine.VehicularDepartureHandler 
2018-10-19 16:01:27,681  INFO Injector:86   --> provider: Key[type=org.matsim.core.mobsim.qsim.qnetsimengine.QNetsimEngineDepartureHandlerProvider, annotation=[none]][Scopes.SINGLETON]
2018-10-19 16:01:27,681  INFO Injector:87   --> source: org.matsim.core.mobsim.qsim.qnetsimengine.QNetsimEnginePlugin$1.configure(QNetsimEnginePlugin.java:27)
2018-10-19 16:01:27,681  INFO Injector:89   --> scope: eager singleton
2018-10-19 16:01:27,681  INFO Injector:94   ==full==> ProviderKeyBinding{key=Key[type=org.matsim.core.mobsim.qsim.qnetsimengine.VehicularDepartureHandler, annotation=[none]], source=org.matsim.core.mobsim.qsim.qnetsimengine.QNetsimEnginePlugin$1.configure(QNetsimEnginePlugin.java:27), scope=eager singleton, provider=Key[type=org.matsim.core.mobsim.qsim.qnetsimengine.QNetsimEngineDepartureHandlerProvider, annotation=[none]]}
2018-10-19 16:01:27,681  INFO Injector:96 
2018-10-19 16:01:27,681  INFO Injector:85 org.matsim.core.mobsim.qsim.agents.AgentFactory 
2018-10-19 16:01:27,681  INFO Injector:86   --> provider: FactoryProxy{key=Key[type=org.matsim.core.mobsim.qsim.agents.AgentFactory, annotation=[none]], provider=com.google.inject.internal.ConstructorBindingImpl$Factory@7d322cad}[Scopes.SINGLETON]
2018-10-19 16:01:27,682  INFO Injector:87   --> source: org.matsim.core.mobsim.qsim.PopulationPlugin$1.configure(PopulationPlugin.java:32)
2018-10-19 16:01:27,682  INFO Injector:89   --> scope: eager singleton
2018-10-19 16:01:27,682  INFO Injector:92   --> target: Key[type=org.matsim.core.mobsim.qsim.agents.DefaultAgentFactory, annotation=[none]]
2018-10-19 16:01:27,682  INFO Injector:94   ==full==> LinkedKeyBinding{key=Key[type=org.matsim.core.mobsim.qsim.agents.AgentFactory, annotation=[none]], source=org.matsim.core.mobsim.qsim.PopulationPlugin$1.configure(PopulationPlugin.java:32), scope=eager singleton, target=Key[type=org.matsim.core.mobsim.qsim.agents.DefaultAgentFactory, annotation=[none]]}
2018-10-19 16:01:27,682  INFO Injector:96 
2018-10-19 16:01:27,682  INFO Injector:85 org.matsim.core.mobsim.qsim.interfaces.Netsim 
2018-10-19 16:01:27,682  INFO Injector:86   --> provider: FactoryProxy{key=Key[type=org.matsim.core.mobsim.qsim.interfaces.Netsim, annotation=[none]], provider=com.google.inject.internal.ConstructorBindingImpl$Factory@7098b907[Scopes.SINGLETON]}
2018-10-19 16:01:27,682  INFO Injector:87   --> source: org.matsim.core.mobsim.qsim.QSimProvider$1.configure(QSimProvider.java:73)
2018-10-19 16:01:27,682  INFO Injector:89   --> scope: Scopes.NO_SCOPE
2018-10-19 16:01:27,682  INFO Injector:92   --> target: Key[type=org.matsim.core.mobsim.qsim.QSim, annotation=[none]]
2018-10-19 16:01:27,682  INFO Injector:94   ==full==> LinkedKeyBinding{key=Key[type=org.matsim.core.mobsim.qsim.interfaces.Netsim, annotation=[none]], source=org.matsim.core.mobsim.qsim.QSimProvider$1.configure(QSimProvider.java:73), scope=Scopes.NO_SCOPE, target=Key[type=org.matsim.core.mobsim.qsim.QSim, annotation=[none]]}
2018-10-19 16:01:27,683  INFO Injector:96 
2018-10-19 16:01:27,683  INFO Injector:85 org.matsim.core.mobsim.jdeqsim.MessageQueue 
2018-10-19 16:01:27,683  INFO Injector:86   --> provider: com.google.inject.internal.ConstructorBindingImpl$Factory@20bd8be5[Scopes.SINGLETON]
2018-10-19 16:01:27,683  INFO Injector:87   --> source: org.matsim.core.mobsim.qsim.messagequeueengine.MessageQueuePlugin$1.configure(MessageQueuePlugin.java:24)
2018-10-19 16:01:27,683  INFO Injector:89   --> scope: eager singleton
2018-10-19 16:01:27,683  INFO Injector:94   ==full==> ConstructorBinding{key=Key[type=org.matsim.core.mobsim.jdeqsim.MessageQueue, annotation=[none]], source=org.matsim.core.mobsim.qsim.messagequeueengine.MessageQueuePlugin$1.configure(MessageQueuePlugin.java:24), scope=eager singleton}
2018-10-19 16:01:27,683  INFO Injector:96 
2018-10-19 16:01:27,683  INFO Injector:85 org.matsim.core.mobsim.qsim.jdeqsimengine.SteppableScheduler 
2018-10-19 16:01:27,683  INFO Injector:86   --> provider: com.google.inject.internal.ConstructorBindingImpl$Factory@1a5a4e19[Scopes.SINGLETON]
2018-10-19 16:01:27,683  INFO Injector:87   --> source: org.matsim.core.mobsim.qsim.messagequeueengine.MessageQueuePlugin$1.configure(MessageQueuePlugin.java:25)
2018-10-19 16:01:27,683  INFO Injector:89   --> scope: eager singleton
2018-10-19 16:01:27,684  INFO Injector:94   ==full==> ConstructorBinding{key=Key[type=org.matsim.core.mobsim.qsim.jdeqsimengine.SteppableScheduler, annotation=[none]], source=org.matsim.core.mobsim.qsim.messagequeueengine.MessageQueuePlugin$1.configure(MessageQueuePlugin.java:25), scope=eager singleton}
2018-10-19 16:01:27,684  INFO Injector:96 
2018-10-19 16:01:27,684  INFO Injector:85 org.matsim.core.mobsim.qsim.messagequeueengine.MessageQueueEngine 
2018-10-19 16:01:27,684  INFO Injector:86   --> provider: com.google.inject.internal.ConstructorBindingImpl$Factory@2438dcd[Scopes.SINGLETON]
2018-10-19 16:01:27,684  INFO Injector:87   --> source: org.matsim.core.mobsim.qsim.messagequeueengine.MessageQueuePlugin$1.configure(MessageQueuePlugin.java:26)
2018-10-19 16:01:27,684  INFO Injector:89   --> scope: eager singleton
2018-10-19 16:01:27,684  INFO Injector:94   ==full==> ConstructorBinding{key=Key[type=org.matsim.core.mobsim.qsim.messagequeueengine.MessageQueueEngine, annotation=[none]], source=org.matsim.core.mobsim.qsim.messagequeueengine.MessageQueuePlugin$1.configure(MessageQueuePlugin.java:26), scope=eager singleton}
2018-10-19 16:01:27,684  INFO Injector:96 
2018-10-19 16:01:27,684  INFO Injector:85 org.matsim.core.mobsim.qsim.ActivityEngine 
2018-10-19 16:01:27,684  INFO Injector:86   --> provider: com.google.inject.internal.ConstructorBindingImpl$Factory@e3b3b2f[Scopes.SINGLETON]
2018-10-19 16:01:27,685  INFO Injector:87   --> source: org.matsim.core.mobsim.qsim.ActivityEnginePlugin$1.configure(ActivityEnginePlugin.java:25)
2018-10-19 16:01:27,685  INFO Injector:89   --> scope: eager singleton
2018-10-19 16:01:27,685  INFO Injector:94   ==full==> ConstructorBinding{key=Key[type=org.matsim.core.mobsim.qsim.ActivityEngine, annotation=[none]], source=org.matsim.core.mobsim.qsim.ActivityEnginePlugin$1.configure(ActivityEnginePlugin.java:25), scope=eager singleton}
2018-10-19 16:01:27,685  INFO Injector:96 
2018-10-19 16:01:27,685  INFO Injector:85 org.matsim.core.mobsim.qsim.qnetsimengine.QNetsimEngine 
2018-10-19 16:01:27,685  INFO Injector:86   --> provider: com.google.inject.internal.ConstructorBindingImpl$Factory@32115b28[Scopes.SINGLETON]
2018-10-19 16:01:27,685  INFO Injector:87   --> source: org.matsim.core.mobsim.qsim.qnetsimengine.QNetsimEnginePlugin$1.configure(QNetsimEnginePlugin.java:26)
2018-10-19 16:01:27,685  INFO Injector:89   --> scope: eager singleton
2018-10-19 16:01:27,685  INFO Injector:94   ==full==> ConstructorBinding{key=Key[type=org.matsim.core.mobsim.qsim.qnetsimengine.QNetsimEngine, annotation=[none]], source=org.matsim.core.mobsim.qsim.qnetsimengine.QNetsimEnginePlugin$1.configure(QNetsimEnginePlugin.java:26), scope=eager singleton}
2018-10-19 16:01:27,685  INFO Injector:96 
2018-10-19 16:01:27,685  INFO Injector:85 org.matsim.core.mobsim.qsim.DefaultTeleportationEngine 
2018-10-19 16:01:27,686  INFO Injector:86   --> provider: com.google.inject.internal.ConstructorBindingImpl$Factory@3214ee6[Scopes.SINGLETON]
2018-10-19 16:01:27,686  INFO Injector:87   --> source: org.matsim.core.mobsim.qsim.TeleportationPlugin$1.configure(TeleportationPlugin.java:24)
2018-10-19 16:01:27,686  INFO Injector:89   --> scope: eager singleton
2018-10-19 16:01:27,686  INFO Injector:94   ==full==> ConstructorBinding{key=Key[type=org.matsim.core.mobsim.qsim.DefaultTeleportationEngine, annotation=[none]], source=org.matsim.core.mobsim.qsim.TeleportationPlugin$1.configure(TeleportationPlugin.java:24), scope=eager singleton}
2018-10-19 16:01:27,686  INFO Injector:96 
2018-10-19 16:01:27,686  INFO Injector:85 org.matsim.core.mobsim.qsim.agents.PopulationAgentSource 
2018-10-19 16:01:27,686  INFO Injector:86   --> provider: com.google.inject.internal.ConstructorBindingImpl$Factory@68746f22[Scopes.SINGLETON]
2018-10-19 16:01:27,686  INFO Injector:87   --> source: org.matsim.core.mobsim.qsim.PopulationPlugin$1.configure(PopulationPlugin.java:28)
2018-10-19 16:01:27,686  INFO Injector:89   --> scope: eager singleton
2018-10-19 16:01:27,686  INFO Injector:94   ==full==> ConstructorBinding{key=Key[type=org.matsim.core.mobsim.qsim.agents.PopulationAgentSource, annotation=[none]], source=org.matsim.core.mobsim.qsim.PopulationPlugin$1.configure(PopulationPlugin.java:28), scope=eager singleton}
2018-10-19 16:01:27,686  INFO Injector:96 
2018-10-19 16:01:27,687  INFO Injector:85 org.matsim.core.mobsim.qsim.QSim 
2018-10-19 16:01:27,687  INFO Injector:86   --> provider: com.google.inject.internal.ConstructorBindingImpl$Factory@7098b907[Scopes.SINGLETON]
2018-10-19 16:01:27,687  INFO Injector:87   --> source: org.matsim.core.mobsim.qsim.QSimProvider$1.configure(QSimProvider.java:72)
2018-10-19 16:01:27,687  INFO Injector:89   --> scope: eager singleton
2018-10-19 16:01:27,687  INFO Injector:94   ==full==> ConstructorBinding{key=Key[type=org.matsim.core.mobsim.qsim.QSim, annotation=[none]], source=org.matsim.core.mobsim.qsim.QSimProvider$1.configure(QSimProvider.java:72), scope=eager singleton}
2018-10-19 16:01:27,687  INFO Injector:96 
2018-10-19 16:01:27,687  INFO Injector:99 === printInjector end ===
2018-10-19 16:01:27,689  INFO ComponentRegistry:28 Registered MobsimEngine with name 'ActivityEngine' to class org.matsim.core.mobsim.qsim.ActivityEngine
2018-10-19 16:01:27,689  INFO ComponentRegistry:28 Registered ActivityHandler with name 'ActivityEngine' to class org.matsim.core.mobsim.qsim.ActivityEngine
2018-10-19 16:01:27,689  INFO ComponentRegistry:28 Registered MobsimEngine with name 'NetsimEngine' to class org.matsim.core.mobsim.qsim.qnetsimengine.QNetsimEngine
2018-10-19 16:01:27,689  INFO ComponentRegistry:28 Registered DepartureHandler with name 'NetsimEngine' to class org.matsim.core.mobsim.qsim.qnetsimengine.VehicularDepartureHandler
2018-10-19 16:01:27,689  INFO ComponentRegistry:28 Registered MobsimEngine with name 'TeleportationEngine' to class org.matsim.core.mobsim.qsim.DefaultTeleportationEngine
2018-10-19 16:01:27,689  INFO ComponentRegistry:28 Registered AgentSource with name 'PopulationAgentSource' to class org.matsim.core.mobsim.qsim.agents.PopulationAgentSource
2018-10-19 16:01:27,697  INFO MobsimListenerManager:49 calling addQueueSimulationListener
2018-10-19 16:01:27,697  INFO MobsimListenerManager:53   assigned class org.matsim.core.mobsim.framework.listeners.MobsimListener to interface org.matsim.core.mobsim.framework.listeners.MobsimListener
2018-10-19 16:01:27,698  INFO MobsimListenerManager:53   assigned class org.matsim.core.mobsim.framework.listeners.MobsimListener to interface org.matsim.core.mobsim.framework.listeners.MobsimBeforeSimStepListener
2018-10-19 16:01:27,698  INFO MobsimListenerManager:53   assigned class org.matsim.core.mobsim.framework.listeners.MobsimListener to interface org.matsim.core.mobsim.qsim.messagequeueengine.MessageQueueEngine
2018-10-19 16:01:27,722  WARN QVehicle:75 No VehicleCapacity (= maximum number of passengers) set in Vehicle. Using default value of 4.  This is only a problem if you need vehicles with different capacities, e.g. for minibuses.
2018-10-19 16:01:27,723  WARN QVehicle:75 No VehicleCapacity (= maximum number of passengers) set in Vehicle. Using default value of 4.  This is only a problem if you need vehicles with different capacities, e.g. for minibuses.
2018-10-19 16:01:27,723  WARN QVehicle:75 No VehicleCapacity (= maximum number of passengers) set in Vehicle. Using default value of 4.  This is only a problem if you need vehicles with different capacities, e.g. for minibuses.
2018-10-19 16:01:27,723  WARN QVehicle:75 No VehicleCapacity (= maximum number of passengers) set in Vehicle. Using default value of 4.  This is only a problem if you need vehicles with different capacities, e.g. for minibuses.
2018-10-19 16:01:27,723  WARN QVehicle:75 No VehicleCapacity (= maximum number of passengers) set in Vehicle. Using default value of 4.  This is only a problem if you need vehicles with different capacities, e.g. for minibuses.
2018-10-19 16:01:27,723  WARN QVehicle:75 No VehicleCapacity (= maximum number of passengers) set in Vehicle. Using default value of 4.  This is only a problem if you need vehicles with different capacities, e.g. for minibuses.
2018-10-19 16:01:27,723  WARN QVehicle:75 No VehicleCapacity (= maximum number of passengers) set in Vehicle. Using default value of 4.  This is only a problem if you need vehicles with different capacities, e.g. for minibuses.
2018-10-19 16:01:27,724  WARN QVehicle:75 No VehicleCapacity (= maximum number of passengers) set in Vehicle. Using default value of 4.  This is only a problem if you need vehicles with different capacities, e.g. for minibuses.
2018-10-19 16:01:27,724  WARN QVehicle:75 No VehicleCapacity (= maximum number of passengers) set in Vehicle. Using default value of 4.  This is only a problem if you need vehicles with different capacities, e.g. for minibuses.
2018-10-19 16:01:27,724  WARN QVehicle:75 No VehicleCapacity (= maximum number of passengers) set in Vehicle. Using default value of 4.  This is only a problem if you need vehicles with different capacities, e.g. for minibuses.
2018-10-19 16:01:27,724  WARN QVehicle:80  Future occurences of this logging statement are suppressed.
2018-10-19 16:01:27,805  INFO QNetsimEngine:507 Assigned 30891 nodes and 54827 links to QSimEngineRunner #0
2018-10-19 16:01:27,815  INFO EventsManagerImpl:134  event # 1
2018-10-19 16:01:27,819  INFO EventsManagerImpl:134  event # 4
2018-10-19 16:01:27,819  INFO QNetsimEngine:347 SIMULATION (QNetsimEngine) AT 09:00:03 : #links=0 #nodes=0
2018-10-19 16:01:27,819  INFO QSim:506 SIMULATION (NEW QSim) AT 09:00:03 : #Veh=8132 lost=0 simT=0.0s realT=0s; (s/r): 0.0
2018-10-19 16:01:27,819  INFO Gbl:57 used RAM: 2460656568B = 2402984kB = 2346MB  free: 665148488B = 634MB  total: 3125805056B = 2981MB
2018-10-19 16:01:27,823  INFO WarmEmissionHandler:162 Vehicle Munich City-Munich County129 is ending its first activity of the day and leaving link 35039839_1 without having entered.
2018-10-19 16:01:27,823  INFO WarmEmissionHandler:163 This is because of the MATSim logic that there is no link enter event for the link of the first activity
2018-10-19 16:01:27,823  INFO WarmEmissionHandler:164 Thus, no emissions are calculated for this link leave event.
2018-10-19 16:01:27,824  INFO EventsManagerImpl:134  event # 16
2018-10-19 16:01:27,825  INFO WarmEmissionHandler:162 Vehicle Munich City-Munich City552 is ending its first activity of the day and leaving link 35877178_0 without having entered.
2018-10-19 16:01:27,825  INFO WarmEmissionHandler:163 This is because of the MATSim logic that there is no link enter event for the link of the first activity
2018-10-19 16:01:27,825  INFO WarmEmissionHandler:164 Thus, no emissions are calculated for this link leave event.
2018-10-19 16:01:27,825  INFO WarmEmissionHandler:162 Vehicle Munich City-Munich City1465 is ending its first activity of the day and leaving link 26832052_0 without having entered.
2018-10-19 16:01:27,825  INFO WarmEmissionHandler:163 This is because of the MATSim logic that there is no link enter event for the link of the first activity
2018-10-19 16:01:27,825  INFO WarmEmissionHandler:164 Thus, no emissions are calculated for this link leave event.
2018-10-19 16:01:27,828 ERROR SimStepParallelEventsManagerImpl$ExceptionHandler:420 Thread class org.matsim.core.events.SimStepParallelEventsManagerImpl$ProcessEventsRunnable0 died with exception while handling events.
java.lang.NullPointerException
	at org.matsim.contrib.emissions.WarmEmissionAnalysisModule.calculateWarmEmissions(WarmEmissionAnalysisModule.java:272)
	at org.matsim.contrib.emissions.WarmEmissionAnalysisModule.checkVehicleInfoAndCalculateWarmEmissions(WarmEmissionAnalysisModule.java:181)
	at org.matsim.contrib.emissions.WarmEmissionHandler.handleEvent(WarmEmissionHandler.java:200)
	at org.matsim.core.events.EventsManagerImpl.callHandlerFast(EventsManagerImpl.java:288)
	at org.matsim.core.events.EventsManagerImpl.computeEvent(EventsManagerImpl.java:222)
	at org.matsim.core.events.EventsManagerImpl.processEvent(EventsManagerImpl.java:136)
	at org.matsim.core.events.SimStepParallelEventsManagerImpl$ProcessEventsRunnable.run(SimStepParallelEventsManagerImpl.java:330)
	at java.lang.Thread.run(Thread.java:748)
2018-10-19 16:01:27,877 ERROR AbstractController:208 Mobsim did not complete normally! afterMobsimListeners will be called anyway.
java.lang.RuntimeException: Exception while processing events. Cannot guarantee that all events have been fully processed.
	at org.matsim.core.events.SimStepParallelEventsManagerImpl.finishProcessing(SimStepParallelEventsManagerImpl.java:212)
	at org.matsim.core.mobsim.qsim.QSim.cleanupSim(QSim.java:319)
	at org.matsim.core.mobsim.qsim.QSim.run(QSim.java:244)
	at org.matsim.core.controler.NewControler.runMobSim(NewControler.java:126)
	at org.matsim.core.controler.AbstractController$8.run(AbstractController.java:197)
	at org.matsim.core.controler.AbstractController.iterationStep(AbstractController.java:229)
	at org.matsim.core.controler.AbstractController.mobsim(AbstractController.java:193)
	at org.matsim.core.controler.AbstractController.iteration(AbstractController.java:144)
	at org.matsim.core.controler.AbstractController.doIterations(AbstractController.java:112)
	at org.matsim.core.controler.AbstractController.access$100(AbstractController.java:28)
	at org.matsim.core.controler.AbstractController$1.run(AbstractController.java:80)
	at org.matsim.core.controler.MatsimRuntimeModifications.run(MatsimRuntimeModifications.java:48)
	at org.matsim.core.controler.MatsimRuntimeModifications.run(MatsimRuntimeModifications.java:31)
	at org.matsim.core.controler.AbstractController.run(AbstractController.java:88)
	at org.matsim.core.controler.NewControler.run(NewControler.java:84)
	at org.matsim.core.controler.Controler.run(Controler.java:212)
	at org.matsim.contrib.emissions.example.RunEmissionToolOnlineExampleV2.run(RunEmissionToolOnlineExampleV2.java:69)
	at org.matsim.contrib.emissions.example.RunEmissionToolOnlineExampleV2.main(RunEmissionToolOnlineExampleV2.java:72)
Caused by: java.lang.NullPointerException
	at org.matsim.contrib.emissions.WarmEmissionAnalysisModule.calculateWarmEmissions(WarmEmissionAnalysisModule.java:272)
	at org.matsim.contrib.emissions.WarmEmissionAnalysisModule.checkVehicleInfoAndCalculateWarmEmissions(WarmEmissionAnalysisModule.java:181)
	at org.matsim.contrib.emissions.WarmEmissionHandler.handleEvent(WarmEmissionHandler.java:200)
	at org.matsim.core.events.EventsManagerImpl.callHandlerFast(EventsManagerImpl.java:288)
	at org.matsim.core.events.EventsManagerImpl.computeEvent(EventsManagerImpl.java:222)
	at org.matsim.core.events.EventsManagerImpl.processEvent(EventsManagerImpl.java:136)
	at org.matsim.core.events.SimStepParallelEventsManagerImpl$ProcessEventsRunnable.run(SimStepParallelEventsManagerImpl.java:330)
	at java.lang.Thread.run(Thread.java:748)
2018-10-19 16:01:27,878  INFO AbstractController$9:220 ### ITERATION 0 fires after mobsim event
2018-10-19 16:01:27,878  INFO ControlerListenerManagerImpl:248 calling notifyAfterMobsim on org.matsim.analysis.LegTimesControlerListener
2018-10-19 16:01:27,879  INFO LegTimesControlerListener:50 [0] average trip (probably: leg) duration is: 0 seconds = 00:00:00
2018-10-19 16:01:27,879  INFO ControlerListenerManagerImpl:248 calling notifyAfterMobsim on org.matsim.core.scoring.EventsToActivities$1
2018-10-19 16:01:27,879  INFO ControlerListenerManagerImpl:251 [it.0] all ControlerAfterMobsimListeners called.
2018-10-19 16:01:27,880 ERROR MatsimRuntimeModifications:54 Getting uncaught Exception in Thread main
java.lang.RuntimeException: Exception while processing events. Cannot guarantee that all events have been fully processed.
	at org.matsim.core.events.SimStepParallelEventsManagerImpl.finishProcessing(SimStepParallelEventsManagerImpl.java:212)
	at org.matsim.core.mobsim.qsim.QSim.cleanupSim(QSim.java:319)
	at org.matsim.core.mobsim.qsim.QSim.run(QSim.java:244)
	at org.matsim.core.controler.NewControler.runMobSim(NewControler.java:126)
	at org.matsim.core.controler.AbstractController$8.run(AbstractController.java:197)
	at org.matsim.core.controler.AbstractController.iterationStep(AbstractController.java:229)
	at org.matsim.core.controler.AbstractController.mobsim(AbstractController.java:193)
	at org.matsim.core.controler.AbstractController.iteration(AbstractController.java:144)
	at org.matsim.core.controler.AbstractController.doIterations(AbstractController.java:112)
	at org.matsim.core.controler.AbstractController.access$100(AbstractController.java:28)
	at org.matsim.core.controler.AbstractController$1.run(AbstractController.java:80)
	at org.matsim.core.controler.MatsimRuntimeModifications.run(MatsimRuntimeModifications.java:48)
	at org.matsim.core.controler.MatsimRuntimeModifications.run(MatsimRuntimeModifications.java:31)
	at org.matsim.core.controler.AbstractController.run(AbstractController.java:88)
	at org.matsim.core.controler.NewControler.run(NewControler.java:84)
	at org.matsim.core.controler.Controler.run(Controler.java:212)
	at org.matsim.contrib.emissions.example.RunEmissionToolOnlineExampleV2.run(RunEmissionToolOnlineExampleV2.java:69)
	at org.matsim.contrib.emissions.example.RunEmissionToolOnlineExampleV2.main(RunEmissionToolOnlineExampleV2.java:72)
Caused by: java.lang.NullPointerException
	at org.matsim.contrib.emissions.WarmEmissionAnalysisModule.calculateWarmEmissions(WarmEmissionAnalysisModule.java:272)
	at org.matsim.contrib.emissions.WarmEmissionAnalysisModule.checkVehicleInfoAndCalculateWarmEmissions(WarmEmissionAnalysisModule.java:181)
	at org.matsim.contrib.emissions.WarmEmissionHandler.handleEvent(WarmEmissionHandler.java:200)
	at org.matsim.core.events.EventsManagerImpl.callHandlerFast(EventsManagerImpl.java:288)
	at org.matsim.core.events.EventsManagerImpl.computeEvent(EventsManagerImpl.java:222)
	at org.matsim.core.events.EventsManagerImpl.processEvent(EventsManagerImpl.java:136)
	at org.matsim.core.events.SimStepParallelEventsManagerImpl$ProcessEventsRunnable.run(SimStepParallelEventsManagerImpl.java:330)
	at java.lang.Thread.run(Thread.java:748)
2018-10-19 16:01:27,882  INFO MatsimRuntimeModifications:58 S H U T D O W N   ---   start shutdown.
2018-10-19 16:01:27,882 ERROR MatsimRuntimeModifications:60 ERROR --- This is an unexpected shutdown!
2018-10-19 16:01:27,882 ERROR MatsimRuntimeModifications:63 Shutdown possibly caused by the following Exception:
java.lang.RuntimeException: Exception while processing events. Cannot guarantee that all events have been fully processed.
	at org.matsim.core.events.SimStepParallelEventsManagerImpl.finishProcessing(SimStepParallelEventsManagerImpl.java:212)
	at org.matsim.core.mobsim.qsim.QSim.cleanupSim(QSim.java:319)
	at org.matsim.core.mobsim.qsim.QSim.run(QSim.java:244)
	at org.matsim.core.controler.NewControler.runMobSim(NewControler.java:126)
	at org.matsim.core.controler.AbstractController$8.run(AbstractController.java:197)
	at org.matsim.core.controler.AbstractController.iterationStep(AbstractController.java:229)
	at org.matsim.core.controler.AbstractController.mobsim(AbstractController.java:193)
	at org.matsim.core.controler.AbstractController.iteration(AbstractController.java:144)
	at org.matsim.core.controler.AbstractController.doIterations(AbstractController.java:112)
	at org.matsim.core.controler.AbstractController.access$100(AbstractController.java:28)
	at org.matsim.core.controler.AbstractController$1.run(AbstractController.java:80)
	at org.matsim.core.controler.MatsimRuntimeModifications.run(MatsimRuntimeModifications.java:48)
	at org.matsim.core.controler.MatsimRuntimeModifications.run(MatsimRuntimeModifications.java:31)
	at org.matsim.core.controler.AbstractController.run(AbstractController.java:88)
	at org.matsim.core.controler.NewControler.run(NewControler.java:84)
	at org.matsim.core.controler.Controler.run(Controler.java:212)
	at org.matsim.contrib.emissions.example.RunEmissionToolOnlineExampleV2.run(RunEmissionToolOnlineExampleV2.java:69)
	at org.matsim.contrib.emissions.example.RunEmissionToolOnlineExampleV2.main(RunEmissionToolOnlineExampleV2.java:72)
Caused by: java.lang.NullPointerException
	at org.matsim.contrib.emissions.WarmEmissionAnalysisModule.calculateWarmEmissions(WarmEmissionAnalysisModule.java:272)
	at org.matsim.contrib.emissions.WarmEmissionAnalysisModule.checkVehicleInfoAndCalculateWarmEmissions(WarmEmissionAnalysisModule.java:181)
	at org.matsim.contrib.emissions.WarmEmissionHandler.handleEvent(WarmEmissionHandler.java:200)
	at org.matsim.core.events.EventsManagerImpl.callHandlerFast(EventsManagerImpl.java:288)
	at org.matsim.core.events.EventsManagerImpl.computeEvent(EventsManagerImpl.java:222)
	at org.matsim.core.events.EventsManagerImpl.processEvent(EventsManagerImpl.java:136)
	at org.matsim.core.events.SimStepParallelEventsManagerImpl$ProcessEventsRunnable.run(SimStepParallelEventsManagerImpl.java:330)
	at java.lang.Thread.run(Thread.java:748)
2018-10-19 16:01:27,882  INFO ControlerListenerManagerImpl:121 calling notifyShutdown on org.matsim.core.controler.corelisteners.EventsHandlingImpl
2018-10-19 16:01:27,884  INFO ControlerListenerManagerImpl:121 calling notifyShutdown on org.matsim.core.controler.corelisteners.DumpDataAtEndImpl
2018-10-19 16:01:27,884  INFO ControlerListenerManagerImpl:126 calling notifyShutdown on org.matsim.analysis.ModeStatsControlerListener
2018-10-19 16:01:27,884  INFO ControlerListenerManagerImpl:126 calling notifyShutdown on org.matsim.analysis.ScoreStatsControlerListener
2018-10-19 16:01:27,885  INFO ControlerListenerManagerImpl:126 calling notifyShutdown on org.matsim.analysis.TravelDistanceStatsControlerListener
2018-10-19 16:01:27,885  INFO ControlerListenerManagerImpl:129 all ControlerShutdownListeners called.
2018-10-19 16:01:27,885 ERROR MatsimRuntimeModifications:78 ERROR --- MATSim unexpectedly terminated. Please check the output or the logfile with warnings and errors for hints.
2018-10-19 16:01:27,885 ERROR MatsimRuntimeModifications:79 ERROR --- results should not be used for further analysis.
2018-10-19 16:01:27,885  INFO MatsimRuntimeModifications:81 S H U T D O W N   ---   shutdown completed.
2018-10-19 16:01:27,886 ERROR MatsimRuntimeModifications:83 ERROR --- This was an unexpected shutdown! See the log file for a possible reason.
